<?xml version="1.0" encoding="UTF-8"?>
<flow xmlns="http://www.springframework.org/schema/webflow"
      xmlns:xsi="http://www.w3.org/2001/XMLSchema-instance"
      xsi:schemaLocation="http://www.springframework.org/schema/webflow http://www.springframework.org/schema/webflow/spring-webflow-2.0.xsd">
<var name="entity" class="domain.RmRawRule" ></var>
<var name="ruleVM" class="controller.RuleViewModel"/>

    <view-state id="rawrule" view="/WEB-INF/flows/rm/rawrule/rawrule.xhtml">
        <on-entry>
            <evaluate expression="ruleVM.initRawRule()"/>
            <set name="entity" value="ruleVM.rawRule"/>
        </on-entry>
        <transition on="list" to="rawruleList" ></transition>
</view-state>
    <view-state id="rawruleList" view="/WEB-INF/flows/rm/rawrule/rawruleList.xhtml">
        <on-entry>
            <evaluate expression="rawRuleController.initRawRuleList(ruleVM)"/>
            <set name="entity" value="ruleVM.rawRule"/>
        </on-entry>
        <transition on="edit" to="rawrule">
            <set name="ruleVM.newMode" value="false"/>
        </transition>
        <transition on="new" to="rawrule">
            <evaluate expression="rawRuleController.initRawRule(ruleVM)" />
            <set name="ruleVM.newMode" value="true"/>
        </transition>
    </view-state>
</flow>